686
This is C. J. Williams dumpfile
H 1.52239 1.07062 0.000319938
Fe 1.3814 1.44263 1.57489
Fe -0.0205543 -0.019024 2.9254
Fe 1.42898 1.43515 4.30555
Fe -0.00332559 -0.00477283 5.71934
Fe 1.42716 1.42863 7.14124
Fe 0.000529699 -0.000344832 8.56853
Fe 1.42796 1.42804 9.99358
Fe 0.000369462 0.00045487 11.4223
Fe 1.42802 1.42786 12.8483
Fe -0.00392095 -0.0028518 14.2698
Fe 1.43046 1.43353 15.6836
Fe -0.0197464 -0.0172067 17.0637
Fe 1.38033 1.44293 18.4147
Fe 0.0295552 2.85738 -0.00105705
Fe 1.4284 4.28459 1.44085
Fe -0.0321294 2.87845 2.88604
Fe 1.42731 4.28901 4.2902
Fe -0.00492493 2.86009 5.71636
Fe 1.42832 4.28414 7.14054
Fe -3.81408e-05 2.85618 8.56816
Fe 1.42709 4.28357 9.99482
Fe -7.74662e-05 2.8563 11.4232
Fe 1.42778 4.28527 12.8484
Fe -0.00482373 2.86069 14.272
Fe 1.42866 4.28973 15.6974
Fe -0.0308432 2.87988 17.1006
Fe 1.42975 4.28416 18.5472
Fe 0.00309149 5.70939 0.000328824
Fe 1.42672 7.13966 1.42771
Fe -0.00366959 5.71378 2.85846
Fe 1.42839 7.14061 4.28498
Fe -0.00139408 5.71413 5.71464
Fe 1.42896 7.14044 7.13931
Fe -0.000152061 5.71258 8.56729
Fe 1.42808 7.13951 9.9931
Fe 1.67778e-05 5.71296 11.4221
Fe 1.4278 7.14021 12.8502
Fe -0.000832937 5.71432 14.2754
Fe 1.4281 7.14045 15.7053
Fe -0.00393452 5.71357 17.132
Fe 1.42785 7.13906 18.5632
Fe -0.000461693 8.56699 -0.000353149
Fe 1.42819 9.99488 1.42758
Fe 0.000866796 8.56702 2.85594
Fe 1.42869 9.99438 4.2835
Fe -0.00114971 8.56817 5.71319
Fe 1.42701 9.99585 7.13878
Fe 0.000231244 8.56746 8.5678
Fe 1.42745 9.99551 9.99594
Fe 0.00111404 8.56752 11.4232
Fe 1.42744 9.99618 12.8505
Fe -0.00019429 8.56836 14.2761
Fe 1.42754 9.99646 15.706
Fe -0.000108877 8.56741 17.1339
Fe 1.42732 9.99545 18.5619
Fe -0.000844272 11.4219 -0.00060494
Fe 1.4279 12.8507 1.42904
Fe -0.000274269 11.4236 2.8556
Fe 1.42768 12.8508 4.28451
Fe -0.00105249 11.4233 5.71022
Fe 1.42753 12.8512 7.13866
Fe -0.00114585 11.4221 8.56598
Fe 1.42815 12.8502 9.99427
Fe -0.000679778 11.4236 11.4221
Fe 1.4287 12.8513 12.8526
Fe -0.000558024 11.4241 14.278
Fe 1.42785 12.851 15.7056
Fe 0.00109195 11.4222 17.1334
Fe 1.42842 12.8508 18.5617
Fe -8.44634e-05 14.2767 0.000685745
Fe 1.42987 15.7056 1.43007
Fe -0.000433288 14.2785 2.85626
Fe 1.42679 15.7072 4.28174
Fe -0.000415863 14.2792 5.71109
Fe 1.42732 15.7046 7.13926
Fe -9.49007e-05 14.2795 8.56717
Fe 1.42772 15.706 9.99532
Fe 0.000367851 14.2782 11.4227
Fe 1.42827 15.7063 12.8498
Fe 0.000662522 14.2796 14.2786
Fe 1.42748 15.7083 15.708
Fe 0.000376693 14.2787 17.1346
Fe 1.43083 15.7056 18.5574
Fe 0.00314715 17.0967 -1.96019e-06
Fe 1.37991 18.6161 1.39283
Fe -0.00281821 17.1396 2.84791
Fe 1.43066 18.5528 4.29303
Fe -9.5758e-05 17.1308 5.71307
Fe 1.42814 18.5612 7.14114
Fe -0.000265483 17.1349 8.56789
Fe 1.4276 18.5613 9.9952
Fe 0.00140238 17.1342 11.4225
Fe 1.4286 18.5597 12.8477
Fe -0.000645023 17.1328 14.2779
Fe 1.43088 18.5536 15.6965
Fe -0.00246615 17.1404 17.1415
Fe 1.38059 18.6157 18.5974
Fe 2.9063 -0.0097872 -0.000231109
Fe 4.28212 1.43296 1.44447
Fe 2.86331 -0.0149953 2.87296
Fe 4.28731 1.42503 4.28949
Fe 2.85735 -0.00341597 5.71547
Fe 4.28652 1.42776 7.14052
Fe 2.85558 -0.000254311 8.56709
Fe 4.28409 1.42808 9.99375
Fe 2.85729 -0.000281174 11.4221
Fe 4.28483 1.42724 12.8489
Fe 2.85877 -0.00479665 14.2728
Fe 4.28653 1.42626 15.7007
Fe 2.86408 -0.0166227 17.1185
Fe 4.28177 1.43141 18.5459
Fe 2.82736 2.82354 3.32857e-05
Fe 4.27677 4.27581 1.41996
Fe 2.86775 2.87015 2.87747
Fe 4.29028 4.29105 4.29002
Fe 2.86124 2.85888 5.71809
Fe 4.28547 4.28555 7.14197
Fe 2.85736 2.85597 8.56765
Fe 4.28415 4.28517 9.99447
Fe 2.85719 2.85657 11.4203
Fe 4.28475 4.2853 12.8483
Fe 2.86031 2.8591 14.2711
Fe 4.29011 4.29067 15.701
Fe 2.86785 2.86794 17.1116
Fe 4.27645 4.27636 18.5704
Fe 2.85138 5.70788 0.00035638
Fe 4.2823 7.13981 1.42688
Fe 2.85929 5.71428 2.85764
Fe 4.28372 7.14146 4.28449
Fe 2.85716 5.71364 5.71374
Fe 4.28431 7.13929 7.14191
Fe 2.85531 5.71167 8.5676
Fe 4.28186 7.13999 9.99499
Fe 2.85539 5.71176 11.4236
Fe 4.28356 7.14016 12.8504
Fe 2.85696 5.71387 14.2763
Fe 4.28564 7.14051 15.7057
Fe 2.85912 5.71327 17.1332
Fe 4.28212 7.13848 18.562
Fe 2.85649 8.56728 0.000590712
Fe 4.28481 9.99495 1.42697
Fe 2.85628 8.56792 2.8555
Fe 4.28466 9.99563 4.28401
Fe 2.85621 8.56713 5.71365
Fe 4.28389 9.99632 7.13887
Fe 2.85424 8.56825 8.56763
Fe 4.28467 9.99381 9.99473
Fe 2.85521 8.56617 11.4228
Fe 4.28254 9.99579 12.8504
Fe 2.85555 8.56817 14.2778
Fe 4.2838 9.99365 15.7053
Fe 2.85623 8.56701 17.1332
Fe 4.28413 9.99454 18.5618
Fe 2.85559 11.4231 0.000528044
Fe 4.28387 12.8498 1.42774
Fe 2.85622 11.4227 2.85512
Fe 4.28376 12.8505 4.283
Fe 2.85633 11.4208 5.71061
Fe 4.28348 12.8517 7.13873
Fe 2.85658 11.4217 8.56684
Fe 4.28286 12.8505 9.99376
Fe 2.85603 11.423 11.4231
Fe 4.28362 12.8502 12.8503
Fe 2.85517 11.4231 14.2793
Fe 4.28391 12.8501 15.7072
Fe 2.85609 11.4229 17.1341
Fe 4.28367 12.8503 18.5633
Fe 2.85431 14.2799 0.000347202
Fe 4.28076 15.7071 1.4275
Fe 2.85528 14.277 2.85585
Fe 4.27777 15.7106 4.2792
Fe 2.8553 14.2778 5.7106
Fe 4.28339 15.7054 7.13967
Fe 2.85552 14.2786 8.56673
Fe 4.28258 15.705 9.99511
Fe 2.85657 14.2767 11.4229
Fe 4.28379 15.7052 12.8496
Fe 2.85647 14.278 14.2796
Fe 4.27913 15.7095 15.7099
Fe 2.85606 14.2784 17.1341
Fe 4.28128 15.7089 18.562
Fe 2.84355 17.1446 -0.000296663
Fe 4.28886 18.5531 1.43272
Fe 2.83873 17.1465 2.8417
Fe 4.28808 18.551 4.28915
Fe 2.85521 17.1301 5.71402
Fe 4.28439 18.5604 7.14196
Fe 2.85549 17.1338 8.56688
Fe 4.2837 18.5619 9.99464
Fe 2.85556 17.1336 11.4213
Fe 4.28568 18.5604 12.8492
Fe 2.85762 17.1318 14.2769
Fe 4.29044 18.5533 15.7017
Fe 2.84057 17.1478 17.1474
Fe 4.29069 18.552 18.5591
Fe 5.71031 0.00263438 0.000834153
Fe 7.13974 1.42709 1.42729
Fe 5.71305 -0.00315548 2.85784
Fe 7.1393 1.42679 4.28411
Fe 5.71291 -0.00214562 5.71446
Fe 7.13934 1.42745 7.13917
Fe 5.71251 0.000109565 8.56776
Fe 7.13905 1.42939 9.99394
Fe 5.71022 0.00103899 11.423
Fe 7.14167 1.42845 12.8486
Fe 5.71423 -0.000378917 14.2773
Fe 7.13992 1.42908 15.7048
Fe 5.71326 -0.00175565 17.1348
Fe 7.13909 1.42709 18.5608
Fe 5.70633 2.84967 -0.000131261
Fe 7.13739 4.28339 1.42708
Fe 5.71387 2.85989 2.85855
Fe 7.14084 4.28531 4.28425
Fe 5.71356 2.85519 5.71351
Fe 7.13911 4.28487 7.13836
Fe 5.71204 2.85635 8.56653
Fe 7.14112 4.28172 9.99508
Fe 5.71156 2.85605 11.4214
Fe 7.14032 4.28462 12.8485
Fe 5.71303 2.8563 14.2762
Fe 7.14065 4.28406 15.7043
Fe 5.7132 2.85829 17.1326
Fe 7.13807 4.28208 18.5632
Fe 5.71038 5.71157 -0.000104076
Fe 7.14021 7.13859 1.42782
Fe 5.70934 5.71004 2.85398
Fe 7.13911 7.13956 4.28233
Fe 5.7127 5.7136 5.71304
Fe 7.14021 7.13983 7.13939
Fe 5.71258 5.71298 8.56728
Fe 7.13976 7.13843 9.99492
Fe 5.71084 5.71137 11.4223
Fe 7.13955 7.13927 12.8502
Fe 5.71424 5.71317 14.2772
Fe 7.13869 7.13903 15.7058
Fe 5.71033 5.70963 17.1378
Fe 7.13939 7.13853 18.5615
Fe 5.71183 8.56679 -0.000681604
Fe 7.14097 9.99332 1.42747
Fe 5.71153 8.56709 2.85528
Fe 7.1396 9.99352 4.2839
Fe 5.71124 8.56678 5.71142
Fe 7.13963 9.99378 7.13933
Fe 5.71067 8.56725 8.56697
Fe 7.13893 9.99346 9.99417
Fe 5.7106 8.56584 11.423
Fe 7.13843 9.9933 12.8503
Fe 5.71154 8.5661 14.278
Fe 7.13935 9.99488 15.7049
Fe 5.71305 8.56627 17.1359
Fe 7.13884 9.99403 18.5622
Fe 5.71318 11.4212 -0.00126644
Fe 7.13874 12.8512 1.42873
Fe 5.71289 11.4215 2.85563
Fe 7.14009 12.8494 4.2832
Fe 5.71214 11.4218 5.71163
Fe 7.13917 12.8499 7.14032
Fe 5.71208 11.4231 8.56714
Fe 7.13946 12.85 9.99541
Fe 5.71176 11.4228 11.4224
Fe 7.13987 12.8502 12.8508
Fe 5.71118 11.4215 14.2784
Fe 7.14026 12.8514 15.7066
Fe 5.7123 11.4224 17.1347
Fe 7.13968 12.8511 18.5624
Fe 5.71077 14.2784 0.00142718
Fe 7.1386 15.705 1.42868
Fe 5.71101 14.2793 2.85611
Fe 7.13943 15.7062 4.28489
Fe 5.71014 14.2786 5.70985
Fe 7.1396 15.7057 7.13912
Fe 5.71119 14.2781 8.56677
Fe 7.13877 15.7082 9.99358
Fe 5.71308 14.2779 11.422
Fe 7.1405 15.7061 12.8494
Fe 5.71161 14.2794 14.2793
Fe 7.13979 15.7052 15.7058
Fe 5.71144 14.2777 17.1332
Fe 7.1394 15.7055 18.56
Fe 5.71327 17.1308 0.000210018
Fe 7.14042 18.5611 1.42597
Fe 5.71292 17.1314 2.85664
Fe 7.14097 18.5606 4.28406
Fe 5.71375 17.1303 5.71408
Fe 7.1403 18.5618 7.14062
Fe 5.71186 17.1337 8.56733
Fe 7.13788 18.5632 9.99574
Fe 5.71208 17.1338 11.4218
Fe 7.13993 18.5623 12.8503
Fe 5.71431 17.1318 14.2769
Fe 7.1406 18.5621 15.7058
Fe 5.71274 17.1321 17.1326
Fe 7.14156 18.5606 18.5618
Fe 8.56897 -0.000611757 -0.000581282
Fe 9.99612 1.42815 1.42791
Fe 8.56755 -0.000315531 2.85457
Fe 9.99555 1.42784 4.28373
Fe 8.56731 -0.000146509 5.71127
Fe 9.99394 1.428 7.1382
Fe 8.56703 -0.000731638 8.56708
Fe 9.99471 1.42797 9.99399
Fe 8.56549 0.000708079 11.4226
Fe 9.99522 1.42767 12.8512
Fe 8.56873 -0.000221825 14.2773
Fe 9.99511 1.42811 15.7061
Fe 8.56842 0.000107536 17.1343
Fe 9.99586 1.42782 18.5623
Fe 8.56672 2.85587 0.000217945
Fe 9.99464 4.28342 1.42833
Fe 8.56758 2.85609 2.8559
Fe 9.99525 4.28439 4.28412
Fe 8.56689 2.85518 5.71117
Fe 9.99438 4.28348 7.13872
Fe 8.56626 2.85577 8.56581
Fe 9.99487 4.28313 9.9942
Fe 8.56773 2.85555 11.4225
Fe 9.99578 4.28451 12.8505
Fe 8.56926 2.85578 14.2789
Fe 9.99519 4.28441 15.7057
Fe 8.56684 2.8567 17.1346
Fe 9.99505 4.28443 18.5623
Fe 8.56687 5.71022 -0.000164968
Fe 9.99502 7.13871 1.42758
Fe 8.56642 5.71218 2.85487
Fe 9.99651 7.14003 4.28327
Fe 8.56697 5.71143 5.71105
Fe 9.99547 7.13866 7.13897
Fe 8.56691 5.71146 8.56683
Fe 9.99394 7.13971 9.99578
Fe 8.56707 5.71131 11.4214
Fe 9.99391 7.13834 12.8512
Fe 8.56721 5.71137 14.2782
Fe 9.99429 7.13869 15.7071
Fe 8.56639 5.71141 17.1338
Fe 9.99482 7.13698 18.5614
Fe 8.56707 8.56517 -0.000623286
Fe 9.99586 9.99348 1.42692
Fe 8.56855 8.56705 2.8542
Fe 9.99466 9.9931 4.28464
Fe 8.56746 8.56706 5.71134
Fe 9.99497 9.99436 7.1405
Fe 8.56678 8.56602 8.567
Fe 9.99398 9.9954 9.99472
Fe 8.56644 8.56722 11.4226
Fe 9.99302 9.99469 12.8504
Fe 8.56617 8.56673 14.2786
Fe 9.99372 9.99373 15.7058
Fe 8.56634 8.56726 17.1343
Fe 9.99482 9.99436 18.5619
Fe 8.56613 11.4233 -0.000493944
Fe 9.99383 12.8504 1.42825
Fe 8.56921 11.4219 2.85447
Fe 9.99418 12.8494 4.28327
Fe 8.56812 11.422 5.71128
Fe 9.99571 12.8501 7.14003
Fe 8.56739 11.4234 8.56807
Fe 9.99546 12.8503 9.99489
Fe 8.56714 11.4215 11.423
Fe 9.994 12.8501 12.8492
Fe 8.56624 11.4221 14.2785
Fe 9.99483 12.85 15.7061
Fe 8.56583 11.4223 17.1341
Fe 9.99467 12.8513 18.5621
Fe 8.56726 14.28 -0.000206584
Fe 9.99502 15.7061 1.42893
Fe 8.56554 14.2774 2.85653
Fe 9.99428 15.7064 4.28292
Fe 8.56674 14.2777 5.71212
Fe 9.99444 15.7065 7.13918
Fe 8.56724 14.2788 8.56702
Fe 9.99506 15.7065 9.9948
Fe 8.5669 14.2793 11.4224
Fe 9.99531 15.7061 12.8501
Fe 8.56838 14.2785 14.2775
Fe 9.99565 15.7057 15.7066
Fe 8.56705 14.279 17.1348
Fe 9.99616 15.7053 18.562
Fe 8.56833 17.1328 -0.000601898
Fe 9.99585 18.5623 1.42709
Fe 8.56676 17.1326 2.85471
Fe 9.99485 18.5617 4.2839
Fe 8.56817 17.1336 5.7117
Fe 9.99402 18.5608 7.13848
Fe 8.56752 17.1354 8.56881
Fe 9.99464 18.5639 9.9944
Fe 8.56753 17.1347 11.4233
Fe 9.99551 18.5625 12.8502
Fe 8.56789 17.1336 14.2785
Fe 9.99402 18.5625 15.7063
Fe 8.56853 17.1345 17.1324
Fe 9.99601 18.5621 18.5624
Fe 11.4238 0.00158493 8.14065e-05
Fe 12.8511 1.42836 1.42777
Fe 11.423 -0.00136379 2.85487
Fe 12.8498 1.42859 4.28357
Fe 11.4229 0.000129962 5.71134
Fe 12.8515 1.4276 7.13965
Fe 11.4235 0.000767952 8.56566
Fe 12.8512 1.42822 9.99453
Fe 11.4223 0.000991943 11.4221
Fe 12.8507 1.42794 12.8508
Fe 11.422 0.000605262 14.279
Fe 12.8505 1.428 15.7063
Fe 11.423 -0.000459942 17.1333
Fe 12.8506 1.42779 18.5616
Fe 11.4226 2.8574 0.000336129
Fe 12.8521 4.28318 1.42686
Fe 11.423 2.85588 2.85594
Fe 12.8508 4.28444 4.28436
Fe 11.4228 2.85492 5.71169
Fe 12.8508 4.28377 7.13851
Fe 11.4231 2.85613 8.56718
Fe 12.8506 4.28253 9.99441
Fe 11.4206 2.85624 11.4225
Fe 12.8497 4.28504 12.8512
Fe 11.4222 2.85595 14.2775
Fe 12.852 4.28239 15.7083
Fe 11.4226 2.85522 17.1349
Fe 12.8501 4.28379 18.5622
Fe 11.4226 5.71137 0.000710795
Fe 12.8513 7.13922 1.42937
Fe 11.4231 5.71091 2.85522
Fe 12.8513 7.14118 4.28488
Fe 11.4223 5.71188 5.71103
Fe 12.8511 7.13922 7.13997
Fe 11.4221 5.71048 8.56587
Fe 12.8505 7.13767 9.99377
Fe 11.4233 5.71229 11.4215
Fe 12.85 7.14148 12.8493
Fe 11.4227 5.71179 14.2787
Fe 12.8515 7.13761 15.7067
Fe 11.4226 5.71099 17.1338
Fe 12.8507 7.13854 18.5623
Fe 11.422 8.56595 -0.000752359
Fe 12.8504 9.99474 1.42749
Fe 11.4224 8.56582 2.85577
Fe 12.8506 9.99423 4.28252
Fe 11.4242 8.56739 5.71237
Fe 12.8501 9.99406 7.13981
Fe 11.4225 8.56749 8.56855
Fe 12.8502 9.99487 9.99635
Fe 11.4216 8.56689 11.4222
Fe 12.8502 9.99557 12.8514
Fe 11.4218 8.56733 14.2799
Fe 12.8511 9.99454 15.7064
Fe 11.4232 8.56717 17.1347
Fe 12.8504 9.99527 18.5624
Fe 11.4229 11.424 0.000487308
Fe 12.8511 12.8508 1.4284
Fe 11.4218 11.4228 2.85582
Fe 12.8497 12.8508 4.28328
Fe 11.4228 11.4216 5.71211
Fe 12.8521 12.8511 7.13935
Fe 11.4234 11.4224 8.5677
Fe 12.8514 12.8504 9.99412
Fe 11.4226 11.421 11.4229
Fe 12.8497 12.8503 12.8513
Fe 11.422 11.4214 14.279
Fe 12.8497 12.8487 15.7058
Fe 11.4218 11.4229 17.1345
Fe 12.851 12.8511 18.5623
Fe 11.4223 14.278 0.000732508
Fe 12.8501 15.7056 1.42873
Fe 11.4224 14.2776 2.8562
Fe 12.8508 15.7056 4.28327
Fe 11.4229 14.2788 5.71144
Fe 12.8502 15.7056 7.13928
Fe 11.4235 14.2786 8.56708
Fe 12.851 15.7065 9.99492
Fe 11.4224 14.2783 11.4218
Fe 12.8501 15.7075 12.8524
Fe 11.4222 14.2775 14.2781
Fe 12.8504 15.7048 15.7072
Fe 11.4234 14.2794 17.1339
Fe 12.8517 15.7061 18.563
Fe 11.4231 17.134 -0.000310083
Fe 12.8509 18.5614 1.42778
Fe 11.4224 17.1349 2.85654
Fe 12.8513 18.5614 4.28389
Fe 11.4227 17.1335 5.71129
Fe 12.8504 18.5615 7.13986
Fe 11.4214 17.1342 8.56722
Fe 12.8511 18.5635 9.99479
Fe 11.4214 17.1343 11.4224
Fe 12.8497 18.5617 12.8501
Fe 11.4215 17.1337 14.2787
Fe 12.8501 18.5606 15.7064
Fe 11.4226 17.133 17.1342
Fe 12.8503 18.5623 18.5625
Fe 14.2784 0.00113787 0.000520636
Fe 15.7044 1.4317 1.43235
Fe 14.2789 0.000453041 2.85713
Fe 15.707 1.42851 4.28241
Fe 14.2778 -0.0007908 5.71189
Fe 15.7055 1.42691 7.13959
Fe 14.2791 -0.00100087 8.56743
Fe 15.7057 1.4272 9.99325
Fe 14.278 0.000747456 11.4231
Fe 15.7061 1.42702 12.8499
Fe 14.278 -0.000669716 14.2785
Fe 15.7065 1.42744 15.7071
Fe 14.2799 -0.000146117 17.1337
Fe 15.7046 1.43136 18.5587
Fe 14.2791 2.85538 -0.00101652
Fe 15.7089 4.28092 1.42722
Fe 14.2783 2.85676 2.85691
Fe 15.7097 4.2797 4.27928
Fe 14.2784 2.85584 5.71222
Fe 15.705 4.28409 7.13965
Fe 14.2787 2.85762 8.56736
Fe 15.707 4.28351 9.99513
Fe 14.2784 2.85532 11.4228
Fe 15.7063 4.28407 12.8508
Fe 14.2778 2.85647 14.2779
Fe 15.709 4.27876 15.7108
Fe 14.2783 2.85611 17.1336
Fe 15.7096 4.28021 18.5624
Fe 14.2788 5.71106 2.50305e-06
Fe 15.707 7.13902 1.42834
Fe 14.2797 5.71158 2.85666
Fe 15.7071 7.13826 4.28231
Fe 14.2791 5.71159 5.71121
Fe 15.7057 7.13919 7.14034
Fe 14.2783 5.71201 8.56695
Fe 15.7067 7.13921 9.99402
Fe 14.2788 5.71019 11.4229
Fe 15.705 7.14022 12.8492
Fe 14.2789 5.71082 14.2789
Fe 15.7068 7.13997 15.7064
Fe 14.2793 5.71178 17.1352
Fe 15.7066 7.14028 18.5635
Fe 14.2789 8.56679 -0.000607853
Fe 15.7057 9.99465 1.42734
Fe 14.2802 8.56686 2.85477
Fe 15.706 9.99423 4.28275
Fe 14.2787 8.5677 5.71144
Fe 15.7054 9.99551 7.13984
Fe 14.2784 8.56735 8.56714
Fe 15.7058 9.99474 9.99458
Fe 14.279 8.56605 11.422
Fe 15.7056 9.99415 12.8512
Fe 14.2778 8.567 14.2794
Fe 15.7061 9.99589 15.7046
Fe 14.2773 8.56645 17.1341
Fe 15.7057 9.99565 18.5611
Fe 14.2774 11.4231 -0.000263748
Fe 15.7061 12.8512 1.42838
Fe 14.2792 11.4223 2.85656
Fe 15.7054 12.85 4.28361
Fe 14.2778 11.4228 5.71115
Fe 15.7073 12.8492 7.13991
Fe 14.2781 11.4209 8.56743
Fe 15.7059 12.851 9.99418
Fe 14.2793 11.4226 11.4226
Fe 15.7061 12.8511 12.8501
Fe 14.2769 11.4227 14.2789
Fe 15.7067 12.8505 15.7059
Fe 14.2782 11.4224 17.1337
Fe 15.706 12.8506 18.5624
Fe 14.2784 14.2799 0.00182265
Fe 15.7082 15.7077 1.42972
Fe 14.2789 14.2786 2.85639
Fe 15.712 15.7106 4.27812
Fe 14.2795 14.2786 5.70842
Fe 15.7045 15.7047 7.14005
Fe 14.2791 14.2784 8.56699
Fe 15.7066 15.7056 9.99569
Fe 14.2784 14.2788 11.4233
Fe 15.7055 15.7059 12.8507
Fe 14.2791 14.2788 14.279
Fe 15.711 15.7111 15.7118
Fe 14.2807 14.2782 17.1331
Fe 15.7088 15.7092 18.5627
Fe 14.2788 17.1349 0.00194776
Fe 15.7032 18.5586 1.43062
Fe 14.2791 17.1332 2.85596
Fe 15.7077 18.5608 4.28217
Fe 14.2781 17.1319 5.71008
Fe 15.7048 18.5608 7.13818
Fe 14.278 17.134 8.5678
Fe 15.7055 18.5614 9.99577
Fe 14.2777 17.1341 11.4231
Fe 15.7041 18.562 12.8506
Fe 14.2776 17.1338 14.2795
Fe 15.7074 18.5613 15.7075
Fe 14.2782 17.1329 17.1332
Fe 15.7042 18.5593 18.5585
Fe 17.095 0.00332161 7.65825e-05
Fe 18.6108 1.38298 1.39317
Fe 17.1409 -0.00139284 2.85039
Fe 18.5514 1.42995 4.29501
Fe 17.1321 -0.000423943 5.71246
Fe 18.5606 1.42915 7.1422
Fe 17.133 -0.000709813 8.56601
Fe 18.5617 1.42758 9.99508
Fe 17.1329 -0.0006254 11.4225
Fe 18.5591 1.42907 12.8488
Fe 17.1317 -0.000793177 14.276
Fe 18.5506 1.43067 15.694
Fe 17.14 -0.00201043 17.1395
Fe 18.6107 1.38183 18.5962
Fe 17.1445 2.84189 0.000299887
Fe 18.563 4.27943 1.42018
Fe 17.1461 2.84248 2.84205
Fe 18.5492 4.29535 4.29344
Fe 17.1318 2.85584 5.7139
Fe 18.5604 4.28566 7.14273
Fe 17.1334 2.85597 8.56869
Fe 18.5621 4.28536 9.99688
Fe 17.1329 2.8545 11.4217
Fe 18.5582 4.28666 12.8489
Fe 17.1293 2.85555 14.2767
Fe 18.5474 4.29453 15.6944
Fe 17.1479 2.84266 17.1479
Fe 18.5636 4.27911 18.5712
Fe 17.1323 5.71087 -0.00016062
Fe 18.5613 7.13914 1.42761
Fe 17.1356 5.71032 2.85346
Fe 18.5612 7.14177 4.28583
Fe 17.1299 5.71365 5.71448
Fe 18.562 7.14102 7.1389
Fe 17.1338 5.71183 8.56812
Fe 18.5619 7.1401 9.99558
Fe 17.1327 5.7117 11.4226
Fe 18.5615 7.14027 12.8492
Fe 17.1296 5.71668 14.2754
Fe 18.5619 7.14231 15.7048
Fe 17.1347 5.71054 17.1375
Fe 18.563 7.13816 18.564
Fe 17.1346 8.56781 -0.000264483
Fe 18.5621 9.99504 1.42851
Fe 17.1334 8.5674 2.85522
Fe 18.5618 9.99401 4.28425
Fe 17.1322 8.56676 5.71197
Fe 18.5613 9.99566 7.1395
Fe 17.1322 8.56704 8.56686
Fe 18.562 9.99537 9.99499
Fe 17.1338 8.56615 11.4231
Fe 18.5613 9.99561 12.8505
Fe 17.1339 8.56757 14.2785
Fe 18.5619 9.99452 15.7061
Fe 17.1334 8.56725 17.1339
Fe 18.5614 9.99458 18.5622
Fe 17.1342 11.4225 -0.000388744
Fe 18.5622 12.8499 1.42766
Fe 17.1343 11.4214 2.85604
Fe 18.5621 12.8511 4.28251
Fe 17.1345 11.4223 5.711
Fe 18.5615 12.8499 7.14052
Fe 17.1333 11.4226 8.56728
Fe 18.5626 12.8507 9.99356
Fe 17.133 11.4236 11.4231
Fe 18.5626 12.849 12.8502
Fe 17.1333 11.423 14.278
Fe 18.5613 12.8508 15.7063
Fe 17.1346 11.4218 17.1338
Fe 18.5616 12.8499 18.5606
Fe 17.1326 14.2784 -0.000323598
Fe 18.5577 15.7022 1.43045
Fe 17.1346 14.2776 2.85524
Fe 18.5598 15.7063 4.28252
Fe 17.1329 14.2769 5.71077
Fe 18.561 15.7062 7.13895
Fe 17.1345 14.2784 8.56641
Fe 18.5618 15.7074 9.99593
Fe 17.1344 14.2784 11.4221
Fe 18.5622 15.7055 12.8499
Fe 17.1348 14.2779 14.2792
Fe 18.5598 15.7066 15.707
Fe 17.1344 14.2777 17.1347
Fe 18.5599 15.7046 18.5591
Fe 17.1417 17.1424 7.49984e-05
Fe 18.6071 18.6085 1.38035
Fe 17.1495 17.1495 2.83789
Fe 18.5497 18.5486 4.29441
Fe 17.1312 17.1306 5.71304
Fe 18.5602 18.5606 7.14167
Fe 17.1336 17.1322 8.56828
Fe 18.5617 18.5619 9.99559
Fe 17.1321 17.1334 11.4233
Fe 18.5596 18.5598 12.8479
Fe 17.13 17.1306 14.2762
Fe 18.5486 18.5487 15.696
Fe 17.15 17.1487 17.1516
Fe 18.6086 18.6087 18.611